#
# *******************
# Calendar Parameters
# *******************
 &CAL_NML
#TheCalendar='gregorian',
#startDate_1=19690101,
 TheCalendar='model',
 startDate_1=00010101,
 startDate_2=000000,
 &
